  
       XFOIL         Version 6.99
  
 Calculated polar for: CWairfoil                                       
  
 1 1 Reynolds number fixed          Mach number fixed         
  
 xtrf =   1.000 (top)        1.000 (bottom)  
 Mach =   0.000     Re =     0.402 e 6     Ncrit =   9.000
  
   alpha    CL        CD       CDp       CM     Top_Xtr  Bot_Xtr
  ------ -------- --------- --------- -------- -------- --------
  -5.000  -0.3236   0.02129   0.01451  -0.0492   0.8485   0.0616
  -4.900  -0.3068   0.01873   0.01149  -0.0485   0.8470   0.0449
  -4.800  -0.2964   0.01841   0.01111  -0.0483   0.8451   0.0450
  -4.700  -0.2860   0.01812   0.01078  -0.0481   0.8428   0.0453
  -4.600  -0.2755   0.01781   0.01044  -0.0479   0.8402   0.0455
  -4.500  -0.2649   0.01752   0.01012  -0.0478   0.8376   0.0457
  -4.400  -0.2544   0.01722   0.00978  -0.0476   0.8352   0.0458
  -4.300  -0.2438   0.01693   0.00946  -0.0474   0.8329   0.0459
  -4.200  -0.2332   0.01666   0.00915  -0.0472   0.8308   0.0461
  -4.100  -0.2226   0.01642   0.00887  -0.0471   0.8286   0.0462
  -4.000  -0.2120   0.01618   0.00862  -0.0469   0.8259   0.0464
  -3.900  -0.2015   0.01596   0.00838  -0.0467   0.8231   0.0465
  -3.800  -0.1910   0.01577   0.00816  -0.0465   0.8204   0.0467
  -3.700  -0.1806   0.01564   0.00798  -0.0463   0.8180   0.0469
  -3.600  -0.1703   0.01525   0.00760  -0.0462   0.8158   0.0473
  -3.500  -0.1602   0.01489   0.00726  -0.0460   0.8137   0.0477
  -3.400  -0.1502   0.01464   0.00704  -0.0458   0.8108   0.0481
  -3.300  -0.1401   0.01443   0.00686  -0.0456   0.8079   0.0486
  -3.200  -0.1300   0.01424   0.00667  -0.0454   0.8052   0.0489
  -3.100  -0.1199   0.01406   0.00649  -0.0451   0.8027   0.0493
  -3.000  -0.1098   0.01389   0.00630  -0.0449   0.8004   0.0497
  -2.900  -0.0998   0.01372   0.00612  -0.0446   0.7980   0.0500
  -2.800  -0.0898   0.01355   0.00596  -0.0444   0.7948   0.0503
  -2.700  -0.0798   0.01340   0.00580  -0.0441   0.7917   0.0508
  -2.600  -0.0698   0.01325   0.00564  -0.0438   0.7888   0.0511
  -2.500  -0.0598   0.01312   0.00549  -0.0435   0.7862   0.0515
  -2.300  -0.0392   0.01292   0.00525  -0.0431   0.7803   0.0524
  -2.200  -0.0305   0.01264   0.00500  -0.0426   0.7769   0.0530
  -2.100  -0.0212   0.01245   0.00482  -0.0422   0.7737   0.0536
  -2.000  -0.0115   0.01230   0.00467  -0.0419   0.7709   0.0543
  -1.900  -0.0015   0.01218   0.00454  -0.0416   0.7682   0.0550
  -1.800   0.0084   0.01206   0.00443  -0.0413   0.7645   0.0556
  -1.700   0.0184   0.01194   0.00431  -0.0411   0.7609   0.0563
  -1.600   0.0286   0.01184   0.00419  -0.0408   0.7577   0.0570
  -1.500   0.0388   0.01175   0.00407  -0.0406   0.7548   0.0577
  -1.400   0.0491   0.01167   0.00399  -0.0403   0.7511   0.0583
  -1.300   0.0586   0.01150   0.00383  -0.0400   0.7472   0.0592
  -1.200   0.0684   0.01136   0.00370  -0.0397   0.7435   0.0603
  -1.100   0.0786   0.01127   0.00359  -0.0394   0.7403   0.0616
  -1.000   0.0889   0.01119   0.00350  -0.0392   0.7362   0.0630
  -0.900   0.0992   0.01111   0.00342  -0.0390   0.7318   0.0644
  -0.800   0.1094   0.01102   0.00331  -0.0388   0.7278   0.0659
  -0.700   0.1196   0.01093   0.00320  -0.0385   0.7241   0.0679
  -0.600   0.1298   0.01084   0.00313  -0.0383   0.7191   0.0704
  -0.400   0.1502   0.01068   0.00295  -0.0378   0.7107   0.0791
  -0.300   0.1571   0.01027   0.00284  -0.0370   0.7057   0.1599
  -0.200   0.1560   0.00922   0.00270  -0.0350   0.7012   0.4120
  -0.100   0.1599   0.00876   0.00263  -0.0336   0.6971   0.5197
   0.000   0.1627   0.00838   0.00267  -0.0318   0.6924   0.6255
   0.100   0.1691   0.00822   0.00269  -0.0306   0.6873   0.6822
   0.200   0.1770   0.00813   0.00268  -0.0298   0.6829   0.7176
   0.300   0.1854   0.00803   0.00268  -0.0290   0.6777   0.7473
   0.400   0.1946   0.00795   0.00268  -0.0285   0.6723   0.7708
   0.600   0.2149   0.00782   0.00269  -0.0277   0.6613   0.8179
   0.700   0.2266   0.00778   0.00271  -0.0277   0.6557   0.8436
   0.800   0.2390   0.00777   0.00273  -0.0278   0.6498   0.8656
   0.900   0.2517   0.00777   0.00273  -0.0281   0.6436   0.8835
   1.000   0.2666   0.00778   0.00273  -0.0288   0.6379   0.8998
   1.100   0.2849   0.00778   0.00274  -0.0303   0.6313   0.9142
   1.300   0.3316   0.00787   0.00279  -0.0357   0.6191   0.9340
   1.400   0.3575   0.00794   0.00282  -0.0389   0.6132   0.9399
   1.500   0.3813   0.00802   0.00288  -0.0417   0.6075   0.9447
   1.600   0.4031   0.00811   0.00294  -0.0440   0.6019   0.9486
   1.700   0.4224   0.00822   0.00300  -0.0457   0.5970   0.9534
   1.800   0.4419   0.00832   0.00309  -0.0475   0.5917   0.9569
   1.900   0.4585   0.00842   0.00316  -0.0486   0.5867   0.9616
   2.000   0.4755   0.00854   0.00323  -0.0498   0.5826   0.9644
   2.100   0.4911   0.00862   0.00330  -0.0507   0.5782   0.9680
   2.200   0.5064   0.00870   0.00336  -0.0516   0.5739   0.9712
   2.300   0.5214   0.00879   0.00341  -0.0525   0.5699   0.9743
   2.400   0.5360   0.00887   0.00347  -0.0532   0.5651   0.9780
   2.500   0.5508   0.00896   0.00353  -0.0541   0.5595   0.9816
   2.600   0.5651   0.00907   0.00358  -0.0548   0.5544   0.9852
   2.700   0.5802   0.00914   0.00365  -0.0557   0.5486   0.9887
   2.800   0.5955   0.00923   0.00370  -0.0567   0.5429   0.9914
   2.900   0.6114   0.00931   0.00375  -0.0578   0.5374   0.9938
   3.000   0.6273   0.00938   0.00381  -0.0589   0.5317   0.9959
   3.100   0.6435   0.00945   0.00383  -0.0601   0.5263   0.9974
   3.200   0.6602   0.00948   0.00385  -0.0613   0.5198   0.9989
   3.300   0.6754   0.00954   0.00388  -0.0623   0.5139   1.0000
   3.400   0.6843   0.00957   0.00389  -0.0619   0.5091   1.0000
   3.500   0.6933   0.00959   0.00390  -0.0616   0.5047   1.0000
   3.600   0.7021   0.00963   0.00391  -0.0612   0.4992   1.0000
   3.700   0.7110   0.00966   0.00392  -0.0608   0.4944   1.0000
   3.800   0.7201   0.00969   0.00394  -0.0605   0.4891   1.0000
   3.900   0.7288   0.00974   0.00397  -0.0601   0.4839   1.0000
   4.000   0.7379   0.00977   0.00399  -0.0597   0.4784   1.0000
   4.100   0.7469   0.00982   0.00402  -0.0593   0.4723   1.0000
   4.200   0.7557   0.00987   0.00405  -0.0589   0.4657   1.0000
   4.300   0.7644   0.00993   0.00408  -0.0585   0.4570   1.0000
   4.400   0.7733   0.00999   0.00411  -0.0581   0.4486   1.0000
   4.500   0.7817   0.01008   0.00415  -0.0576   0.4384   1.0000
   4.600   0.7900   0.01017   0.00420  -0.0571   0.4260   1.0000
   4.700   0.7982   0.01028   0.00425  -0.0566   0.4094   1.0000
   4.800   0.8053   0.01046   0.00431  -0.0559   0.3833   1.0000
   4.900   0.8098   0.01083   0.00444  -0.0548   0.3360   1.0000
   5.100   0.8135   0.01207   0.00505  -0.0519   0.2348   1.0000
   5.200   0.8151   0.01272   0.00538  -0.0504   0.1823   1.0000
   5.300   0.8070   0.01409   0.00614  -0.0475   0.0658   1.0000
   5.400   0.8118   0.01448   0.00644  -0.0464   0.0518   1.0000
   5.500   0.8190   0.01470   0.00664  -0.0457   0.0481   1.0000
   5.600   0.8265   0.01489   0.00682  -0.0451   0.0460   1.0000
   5.700   0.8335   0.01511   0.00704  -0.0443   0.0443   1.0000
   5.800   0.8414   0.01527   0.00721  -0.0437   0.0431   1.0000
   5.900   0.8491   0.01543   0.00738  -0.0431   0.0422   1.0000
   6.000   0.8565   0.01562   0.00758  -0.0425   0.0412   1.0000
   6.100   0.8635   0.01583   0.00779  -0.0418   0.0404   1.0000
   6.200   0.8699   0.01609   0.00805  -0.0409   0.0397   1.0000
   6.300   0.8765   0.01632   0.00829  -0.0402   0.0391   1.0000
   6.400   0.8838   0.01650   0.00849  -0.0395   0.0386   1.0000
   6.500   0.8908   0.01670   0.00869  -0.0388   0.0381   1.0000
   6.600   0.8976   0.01691   0.00891  -0.0380   0.0377   1.0000
   6.700   0.9041   0.01713   0.00914  -0.0372   0.0372   1.0000
   6.800   0.9103   0.01736   0.00938  -0.0364   0.0367   1.0000
   6.900   0.9163   0.01761   0.00962  -0.0356   0.0363   1.0000
   7.000   0.9216   0.01788   0.00990  -0.0346   0.0359   1.0000
   7.100   0.9263   0.01819   0.01021  -0.0336   0.0355   1.0000
   7.200   0.9292   0.01859   0.01062  -0.0322   0.0351   1.0000
   7.300   0.9350   0.01883   0.01086  -0.0313   0.0348   1.0000
   7.400   0.9409   0.01905   0.01111  -0.0305   0.0345   1.0000
   7.500   0.9462   0.01930   0.01137  -0.0295   0.0342   1.0000
   7.600   0.9504   0.01956   0.01164  -0.0284   0.0339   1.0000
   7.700   0.9537   0.01982   0.01191  -0.0270   0.0337   1.0000
   7.800   0.9565   0.02009   0.01219  -0.0256   0.0335   1.0000
   7.900   0.9592   0.02037   0.01249  -0.0242   0.0333   1.0000
   8.000   0.9621   0.02066   0.01278  -0.0229   0.0331   1.0000
   8.100   0.9648   0.02097   0.01310  -0.0216   0.0329   1.0000
   8.200   0.9678   0.02129   0.01344  -0.0204   0.0327   1.0000
   8.300   0.9707   0.02163   0.01378  -0.0192   0.0325   1.0000
   8.400   0.9737   0.02199   0.01415  -0.0181   0.0324   1.0000
   8.500   0.9766   0.02237   0.01454  -0.0169   0.0321   1.0000
   8.600   0.9797   0.02276   0.01493  -0.0159   0.0320   1.0000
   8.700   0.9828   0.02317   0.01535  -0.0149   0.0319   1.0000
   8.800   0.9854   0.02362   0.01580  -0.0138   0.0317   1.0000
   8.900   0.9879   0.02410   0.01628  -0.0128   0.0315   1.0000
   9.000   0.9904   0.02460   0.01678  -0.0118   0.0314   1.0000
   9.100   0.9926   0.02515   0.01733  -0.0108   0.0313   1.0000
   9.200   0.9952   0.02570   0.01788  -0.0099   0.0312   1.0000
   9.300   0.9987   0.02621   0.01838  -0.0090   0.0311   1.0000
   9.400   1.0039   0.02658   0.01877  -0.0084   0.0310   1.0000
   9.500   1.0090   0.02697   0.01919  -0.0078   0.0308   1.0000
   9.600   1.0142   0.02735   0.01959  -0.0072   0.0307   1.0000
   9.700   1.0192   0.02777   0.02003  -0.0065   0.0306   1.0000
   9.800   1.0243   0.02818   0.02046  -0.0059   0.0304   1.0000
   9.900   1.0295   0.02859   0.02089  -0.0054   0.0303   1.0000
  10.000   1.0347   0.02901   0.02133  -0.0048   0.0301   1.0000
  10.100   1.0400   0.02943   0.02176  -0.0042   0.0299   1.0000
  10.200   1.0454   0.02986   0.02221  -0.0037   0.0297   1.0000
  10.300   1.0509   0.03029   0.02265  -0.0032   0.0296   1.0000
  10.400   1.0566   0.03073   0.02309  -0.0027   0.0295   1.0000
  10.500   1.0626   0.03115   0.02353  -0.0022   0.0294   1.0000
  10.600   1.0687   0.03158   0.02396  -0.0017   0.0293   1.0000
  10.700   1.0752   0.03200   0.02439  -0.0012   0.0292   1.0000
  10.800   1.0817   0.03241   0.02481  -0.0008   0.0291   1.0000
  10.900   1.0886   0.03282   0.02523  -0.0004   0.0290   1.0000
  11.000   1.0958   0.03323   0.02564   0.0000   0.0289   1.0000
  11.100   1.1031   0.03364   0.02605   0.0004   0.0288   1.0000
  11.200   1.1110   0.03404   0.02646   0.0008   0.0287   1.0000
  11.300   1.1189   0.03444   0.02686   0.0011   0.0286   1.0000
  11.400   1.1274   0.03484   0.02726   0.0014   0.0286   1.0000
  11.500   1.1361   0.03523   0.02766   0.0017   0.0285   1.0000
  11.600   1.1450   0.03564   0.02808   0.0019   0.0285   1.0000
  11.700   1.1544   0.03605   0.02850   0.0021   0.0284   1.0000
  11.800   1.1642   0.03646   0.02892   0.0023   0.0283   1.0000
  11.900   1.1743   0.03690   0.02936   0.0024   0.0283   1.0000
  12.000   1.1847   0.03733   0.02980   0.0025   0.0282   1.0000
  12.100   1.1955   0.03776   0.03022   0.0025   0.0282   1.0000
  12.200   1.2081   0.03820   0.03064   0.0024   0.0280   1.0000
  12.300   1.2265   0.03863   0.03102   0.0017   0.0278   1.0000
  12.400   1.2533   0.03938   0.03169  -0.0001   0.0276   1.0000
  12.500   1.2833   0.04045   0.03273  -0.0025   0.0275   1.0000
  12.600   1.2935   0.04109   0.03341  -0.0026   0.0275   1.0000
  12.700   1.2998   0.04163   0.03399  -0.0021   0.0276   1.0000
  12.800   1.3040   0.04214   0.03455  -0.0014   0.0276   1.0000
  12.900   1.3072   0.04264   0.03512  -0.0005   0.0277   1.0000
  13.000   1.3009   0.04304   0.03564   0.0014   0.0278   1.0000
  13.100   1.2887   0.04473   0.03779   0.0043   0.0293   1.0000
  13.200   1.3024   0.04593   0.03905   0.0039   0.0299   1.0000
  13.400   1.2838   0.04351   0.03681   0.0068   0.0308   1.0000
